data_image0
_chemical_formula_structural       BaBiO3BaBiON2BaBiO3BaBiO3BaBiO2NBaBiO3BaBiO3BaBiO3
_chemical_formula_sum              "Ba8 Bi8 O21 N3"
_cell_length_a       8.7
_cell_length_b       8.7
_cell_length_c       8.7
_cell_angle_alpha    90
_cell_angle_beta     90
_cell_angle_gamma    90

_space_group_name_H-M_alt    "P 1"
_space_group_IT_number       1

loop_
  _space_group_symop_operation_xyz
  'x, y, z'

loop_
  _atom_site_type_symbol
  _atom_site_label
  _atom_site_symmetry_multiplicity
  _atom_site_fract_x
  _atom_site_fract_y
  _atom_site_fract_z
  _atom_site_occupancy
  Ba  Ba1       1.0  0.00000  0.00000  0.00000  1.0000
  Bi  Bi1       1.0  0.25000  0.25000  0.25000  1.0000
  O   O1        1.0  0.25000  0.25000  0.00000  1.0000
  O   O2        1.0  0.00000  0.25000  0.25000  1.0000
  O   O3        1.0  0.25000  0.00000  0.25000  1.0000
  Ba  Ba2       1.0  0.00000  0.00000  0.50000  1.0000
  Bi  Bi2       1.0  0.25000  0.25000  0.75000  1.0000
  O   O4        1.0  0.25000  0.25000  0.50000  1.0000
  N   N1        1.0  0.00000  0.25000  0.75000  1.0000
  N   N2        1.0  0.25000  0.00000  0.75000  1.0000
  Ba  Ba3       1.0  0.00000  0.50000  0.00000  1.0000
  Bi  Bi3       1.0  0.25000  0.75000  0.25000  1.0000
  O   O5        1.0  0.25000  0.75000  0.00000  1.0000
  O   O6        1.0  0.00000  0.75000  0.25000  1.0000
  O   O7        1.0  0.25000  0.50000  0.25000  1.0000
  Ba  Ba4       1.0  0.00000  0.50000  0.50000  1.0000
  Bi  Bi4       1.0  0.25000  0.75000  0.75000  1.0000
  O   O8        1.0  0.25000  0.75000  0.50000  1.0000
  O   O9        1.0  0.00000  0.75000  0.75000  1.0000
  O   O10       1.0  0.25000  0.50000  0.75000  1.0000
  Ba  Ba5       1.0  0.50000  0.00000  0.00000  1.0000
  Bi  Bi5       1.0  0.75000  0.25000  0.25000  1.0000
  O   O11       1.0  0.75000  0.25000  0.00000  1.0000
  O   O12       1.0  0.50000  0.25000  0.25000  1.0000
  N   N3        1.0  0.75000  0.00000  0.25000  1.0000
  Ba  Ba6       1.0  0.50000  0.00000  0.50000  1.0000
  Bi  Bi6       1.0  0.75000  0.25000  0.75000  1.0000
  O   O13       1.0  0.75000  0.25000  0.50000  1.0000
  O   O14       1.0  0.50000  0.25000  0.75000  1.0000
  O   O15       1.0  0.75000  0.00000  0.75000  1.0000
  Ba  Ba7       1.0  0.50000  0.50000  0.00000  1.0000
  Bi  Bi7       1.0  0.75000  0.75000  0.25000  1.0000
  O   O16       1.0  0.75000  0.75000  0.00000  1.0000
  O   O17       1.0  0.50000  0.75000  0.25000  1.0000
  O   O18       1.0  0.75000  0.50000  0.25000  1.0000
  Ba  Ba8       1.0  0.50000  0.50000  0.50000  1.0000
  Bi  Bi8       1.0  0.75000  0.75000  0.75000  1.0000
  O   O19       1.0  0.75000  0.75000  0.50000  1.0000
  O   O20       1.0  0.50000  0.75000  0.75000  1.0000
  O   O21       1.0  0.75000  0.50000  0.75000  1.0000
